# Create netCDF files
# 
# Edited By: Taylor Shropshire 6/23/2016
 &MNC_01
 mnc_use_outdir = .TRUE.,
 mnc_outdir_str = '/gpfs/research/coaps/home/tas14j/final_w_biomass_082619/tile_',
# timeave_mnc = .TRUE.,
 monitor_mnc = .FALSE.,
 snapshot_mnc = .TRUE.,
 pickup_write_mnc = .FALSE.,
 pickup_read_mnc = .FALSE.,
 &end
# 
