# =====================================
# Declare MIT-GCM packages for run-time
# ====================================
# 
# Edited by Taylor Shropshire 6.23.2016 
#
# Packages
 &PACKAGES
 usePTRACERS = .TRUE.,
 useOffLine = .TRUE.,
 useMNC = .TRUE.,
 useGCHEM = .TRUE.,
 useDiagnostics = .TRUE.,
# useRBCS = .TRUE.,
 useOBCS = .TRUE.,
 useKPP = .TRUE.,
 useFLT=.TRUE.,
 &end
# 
# 
#   
