# KPP parameters
 &KPP_PARM01
 KPPwriteState = .FALSE.,
# kpp dumpFreq = 604800, 
 &end
